powerflow/Codes/PF_Formulation/resultados_csv/18/9bus/ramos.csv
caso,script,branch_id,f_bus,t_bus,pf_pu,qf_pu,pt_pu,qt_pu,loss_p_pu,loss_q_pu
9bus.pwf,18,1,7,8,0.49822559874806505,0.016230688977009522,-0.49606181758169177,-0.14656486450218742,0.0021637811663732798,-0.1303341755251779
9bus.pwf,18,2,4,5,0.8618924170752582,0.15317045687263828,-0.8538680867362258,-0.2560316731550124,0.008024330339032382,-0.10286121628237413
9bus.pwf,18,3,4,6,0.5672775450495149,-0.04901693252490115,-0.561781540717819,-0.077212727611626,0.005496004331695836,-0.12622966013652714
9bus.pwf,18,4,6,9,-0.3382184592821761,-0.22278727238817117,0.34288075717300004,-0.11466527178417321,0.004662297890823952,-0.3374525441723444
9bus.pwf,18,5,7,5,0.40177440125193364,-0.026557265435723343,-0.39613191326376895,-0.24396832684464287,0.0056424879881646905,-0.2705255922803662
9bus.pwf,18,6,8,9,-0.5039381824183057,-0.20343513549775344,0.5071192428269972,0.020320438739921773,0.003181060408691483,-0.18311469675783165
9bus.pwf,18,7,1,4,1.429169962124773,0.22264795077604305,-1.429169962124773,-0.10415352434773695,0.0,0.1184944264283061
9bus.pwf,18,8,2,7,0.8999999999999984,0.03990938832047064,-0.8999999999999984,0.010326576458712822,0.0,0.05023596477918346
9bus.pwf,18,9,3,9,0.8499999999999965,-0.052429904751168266,-0.8499999999999965,0.09434483304425711,0.0,0.04191492829308885
